<?xml version="1.0" encoding="UTF-8"?>

<!-- generated on 10/31/19 19:30:53 by Eclipse SUMO netedit Version 1.3.1
<configuration xmlns:xsi="http://www.w3.org/2001/XMLSchema-instance" xsi:noNamespaceSchemaLocation="http://sumo.dlr.de/xsd/netconvertConfiguration.xsd">

    <input>
        <sumo-net-file value="D:\Program%20Files%20(x86)\Sumo\map\fuzzy_tls.net.xml"/>
    </input>

    <output>
        <output-file value="D:\Program%20Files%20(x86)\Sumo\map\fuzzy_tls.net.xml"/>
    </output>

    <processing>
        <geometry.max-grade.fix value="false"/>
        <offset.disable-normalization value="true"/>
        <opposites.guess.fix-lengths value="true"/>
        <lefthand value="false"/>
    </processing>

    <junctions>
        <no-turnarounds value="true"/>
        <junctions.corner-detail value="5"/>
        <junctions.limit-turn-speed value="5.5"/>
        <rectangular-lane-cut value="false"/>
    </junctions>

    <pedestrian>
        <walkingareas value="false"/>
    </pedestrian>

</configuration>
-->

<net version="1.3" junctionCornerDetail="5" limitTurnSpeed="5.50" xmlns:xsi="http://www.w3.org/2001/XMLSchema-instance" xsi:noNamespaceSchemaLocation="http://sumo.dlr.de/xsd/net_file.xsd">

    <location netOffset="0.00,0.00" convBoundary="-450.00,-450.00,450.00,450.00" origBoundary="-10000000000.00,-10000000000.00,10000000000.00,10000000000.00" projParameter="!"/>

    <edge id=":gneJ10_0" function="internal">
        <lane id=":gneJ10_0_0" index="0" speed="13.89" length="0.10" shape="-80.00,1.60 -80.00,1.60"/>
    </edge>
    <edge id=":gneJ10_1" function="internal">
        <lane id=":gneJ10_1_0" index="0" speed="13.89" length="0.10" shape="-80.00,-1.60 -80.00,-1.60"/>
    </edge>
    <edge id=":gneJ11_0" function="internal">
        <lane id=":gneJ11_0_0" index="0" speed="13.89" length="14.40" shape="-1.60,7.20 -1.60,-7.20"/>
    </edge>
    <edge id=":gneJ11_1" function="internal">
        <lane id=":gneJ11_1_0" index="0" speed="13.89" length="14.40" shape="7.20,1.60 -7.20,1.60"/>
    </edge>
    <edge id=":gneJ11_2" function="internal">
        <lane id=":gneJ11_2_0" index="0" speed="13.89" length="14.40" shape="1.60,-7.20 1.60,7.20"/>
    </edge>
    <edge id=":gneJ11_3" function="internal">
        <lane id=":gneJ11_3_0" index="0" speed="13.89" length="14.40" shape="-7.20,-1.60 7.20,-1.60"/>
    </edge>
    <edge id=":gneJ12_0" function="internal">
        <lane id=":gneJ12_0_0" index="0" speed="13.89" length="0.10" shape="-1.60,-80.00 -1.60,-80.00"/>
    </edge>
    <edge id=":gneJ12_1" function="internal">
        <lane id=":gneJ12_1_0" index="0" speed="13.89" length="0.10" shape="1.60,-80.00 1.60,-80.00"/>
    </edge>
    <edge id=":gneJ13_0" function="internal">
        <lane id=":gneJ13_0_0" index="0" speed="13.89" length="0.10" shape="80.00,1.60 80.00,1.60"/>
    </edge>
    <edge id=":gneJ13_1" function="internal">
        <lane id=":gneJ13_1_0" index="0" speed="13.89" length="0.10" shape="80.00,-1.60 80.00,-1.60"/>
    </edge>
    <edge id=":gneJ14_0" function="internal">
        <lane id=":gneJ14_0_0" index="0" speed="13.89" length="0.10" shape="-1.60,80.00 -1.60,80.00"/>
    </edge>
    <edge id=":gneJ14_1" function="internal">
        <lane id=":gneJ14_1_0" index="0" speed="13.89" length="0.10" shape="1.60,80.00 1.60,80.00"/>
    </edge>

    <edge id="-1" from="gneJ11" to="gneJ10" priority="-1">
        <lane id="-1_0" index="0" speed="13.89" length="72.80" shape="-7.20,1.60 -80.00,1.60"/>
    </edge>
    <edge id="-1o" from="gneJ10" to="gneJ9" priority="-1">
        <lane id="-1o_0" index="0" speed="13.89" length="370.00" shape="-80.00,1.60 -450.00,1.60"/>
    </edge>
    <edge id="-2" from="gneJ11" to="gneJ14" priority="-1">
        <lane id="-2_0" index="0" speed="13.89" length="72.80" shape="1.60,7.20 1.60,80.00"/>
    </edge>
    <edge id="-2o" from="gneJ14" to="gneJ15" priority="-1">
        <lane id="-2o_0" index="0" speed="13.89" length="370.00" shape="1.60,80.00 1.60,450.00"/>
    </edge>
    <edge id="-3" from="gneJ11" to="gneJ13" priority="-1">
        <lane id="-3_0" index="0" speed="13.89" length="72.80" shape="7.20,-1.60 80.00,-1.60"/>
    </edge>
    <edge id="-3o" from="gneJ13" to="gneJ16" priority="-1">
        <lane id="-3o_0" index="0" speed="13.89" length="370.00" shape="80.00,-1.60 450.00,-1.60"/>
    </edge>
    <edge id="-4" from="gneJ11" to="gneJ12" priority="-1">
        <lane id="-4_0" index="0" speed="13.89" length="72.80" shape="-1.60,-7.20 -1.60,-80.00"/>
    </edge>
    <edge id="-4o" from="gneJ12" to="gneJ17" priority="-1">
        <lane id="-4o_0" index="0" speed="13.89" length="70.00" shape="-1.60,-80.00 -1.60,-150.00"/>
    </edge>
    <edge id="1" from="gneJ10" to="gneJ11" priority="-1">
        <lane id="1_0" index="0" speed="13.89" length="72.80" shape="-80.00,-1.60 -7.20,-1.60"/>
    </edge>
    <edge id="1o" from="gneJ9" to="gneJ10" priority="-1">
        <lane id="1o_0" index="0" speed="13.89" length="370.00" shape="-450.00,-1.60 -80.00,-1.60"/>
    </edge>
    <edge id="2" from="gneJ14" to="gneJ11" priority="-1">
        <lane id="2_0" index="0" speed="13.89" length="72.80" shape="-1.60,80.00 -1.60,7.20"/>
    </edge>
    <edge id="2o" from="gneJ15" to="gneJ14" priority="-1">
        <lane id="2o_0" index="0" speed="13.89" length="370.00" shape="-1.60,450.00 -1.60,80.00"/>
    </edge>
    <edge id="3" from="gneJ13" to="gneJ11" priority="-1">
        <lane id="3_0" index="0" speed="13.89" length="72.80" shape="80.00,1.60 7.20,1.60"/>
    </edge>
    <edge id="3o" from="gneJ16" to="gneJ13" priority="-1">
        <lane id="3o_0" index="0" speed="13.89" length="370.00" shape="450.00,1.60 80.00,1.60"/>
    </edge>
    <edge id="4" from="gneJ12" to="gneJ11" priority="-1">
        <lane id="4_0" index="0" speed="13.89" length="72.80" shape="1.60,-80.00 1.60,-7.20"/>
    </edge>
    <edge id="4o" from="gneJ17" to="gneJ12" priority="-1">
        <lane id="4o_0" index="0" speed="13.89" length="370.00" shape="1.60,-450.00 1.60,-80.00"/>
    </edge>

    <tlLogic id="gneJ11" type="static" programID="0" offset="0">
        <phase duration="20" state="GrGr"/>
        <phase duration="3"  state="yryr"/>
        <phase duration="20" state="rGrG"/>
        <phase duration="3"  state="ryry"/>
    </tlLogic>

    <junction id="gneJ10" type="priority" x="-80.00" y="0.00" incLanes="-1_0 1o_0" intLanes=":gneJ10_0_0 :gneJ10_1_0" shape="-80.00,3.20 -80.00,-3.20 -80.00,3.20">
        <request index="0" response="00" foes="00" cont="0"/>
        <request index="1" response="00" foes="00" cont="0"/>
    </junction>
    <junction id="gneJ11" type="traffic_light" x="0.00" y="0.00" incLanes="2_0 3_0 4_0 1_0" intLanes=":gneJ11_0_0 :gneJ11_1_0 :gneJ11_2_0 :gneJ11_3_0" shape="-3.20,7.20 3.20,7.20 3.64,4.98 4.20,4.20 4.98,3.64 5.98,3.31 7.20,3.20 7.20,-3.20 4.98,-3.64 4.20,-4.20 3.64,-4.98 3.31,-5.98 3.20,-7.20 -3.20,-7.20 -3.64,-4.98 -4.20,-4.20 -4.98,-3.64 -5.98,-3.31 -7.20,-3.20 -7.20,3.20 -4.98,3.64 -4.20,4.20 -3.64,4.98 -3.31,5.98">
        <request index="0" response="0000" foes="1010" cont="0"/>
        <request index="1" response="0101" foes="0101" cont="0"/>
        <request index="2" response="0000" foes="1010" cont="0"/>
        <request index="3" response="0101" foes="0101" cont="0"/>
    </junction>
    <junction id="gneJ12" type="priority" x="0.00" y="-80.00" incLanes="-4_0 4o_0" intLanes=":gneJ12_0_0 :gneJ12_1_0" shape="-3.20,-80.00 3.20,-80.00 -3.20,-80.00">
        <request index="0" response="00" foes="00" cont="0"/>
        <request index="1" response="00" foes="00" cont="0"/>
    </junction>
    <junction id="gneJ13" type="priority" x="80.00" y="0.00" incLanes="3o_0 -3_0" intLanes=":gneJ13_0_0 :gneJ13_1_0" shape="80.00,3.20 80.00,-3.20 80.00,3.20">
        <request index="0" response="00" foes="00" cont="0"/>
        <request index="1" response="00" foes="00" cont="0"/>
    </junction>
    <junction id="gneJ14" type="priority" x="0.00" y="80.00" incLanes="2o_0 -2_0" intLanes=":gneJ14_0_0 :gneJ14_1_0" shape="-3.20,80.00 3.20,80.00 -3.20,80.00">
        <request index="0" response="00" foes="00" cont="0"/>
        <request index="1" response="00" foes="00" cont="0"/>
    </junction>
    <junction id="gneJ15" type="dead_end" x="0.00" y="450.00" incLanes="-2o_0" intLanes="" shape="0.00,450.00 3.20,450.00 0.00,450.00"/>
    <junction id="gneJ16" type="dead_end" x="450.00" y="0.00" incLanes="-3o_0" intLanes="" shape="450.00,0.00 450.00,-3.20 450.00,0.00"/>
    <junction id="gneJ17" type="dead_end" x="0.00" y="-450.00" incLanes="-4o_0" intLanes="" shape="0.00,-150.00 -3.20,-150.00 0.00,-150.00" customShape="1"/>
    <junction id="gneJ9" type="dead_end" x="-450.00" y="0.00" incLanes="-1o_0" intLanes="" shape="-450.00,0.00 -450.00,3.20 -450.00,0.00"/>

    <connection from="-1" to="-1o" fromLane="0" toLane="0" via=":gneJ10_0_0" dir="s" state="M"/>
    <connection from="-2" to="-2o" fromLane="0" toLane="0" via=":gneJ14_1_0" dir="s" state="M"/>
    <connection from="-3" to="-3o" fromLane="0" toLane="0" via=":gneJ13_1_0" dir="s" state="M"/>
    <connection from="-4" to="-4o" fromLane="0" toLane="0" via=":gneJ12_0_0" dir="s" state="M"/>
    <connection from="1" to="-3" fromLane="0" toLane="0" via=":gneJ11_3_0" tl="gneJ11" linkIndex="3" dir="s" state="o"/>
    <connection from="1o" to="1" fromLane="0" toLane="0" via=":gneJ10_1_0" dir="s" state="M"/>
    <connection from="2" to="-4" fromLane="0" toLane="0" via=":gneJ11_0_0" tl="gneJ11" linkIndex="0" dir="s" state="O"/>
    <connection from="2o" to="2" fromLane="0" toLane="0" via=":gneJ14_0_0" dir="s" state="M"/>
    <connection from="3" to="-1" fromLane="0" toLane="0" via=":gneJ11_1_0" tl="gneJ11" linkIndex="1" dir="s" state="o"/>
    <connection from="3o" to="3" fromLane="0" toLane="0" via=":gneJ13_0_0" dir="s" state="M"/>
    <connection from="4" to="-2" fromLane="0" toLane="0" via=":gneJ11_2_0" tl="gneJ11" linkIndex="2" dir="s" state="O"/>
    <connection from="4o" to="4" fromLane="0" toLane="0" via=":gneJ12_1_0" dir="s" state="M"/>

    <connection from=":gneJ10_0" to="-1o" fromLane="0" toLane="0" dir="s" state="M"/>
    <connection from=":gneJ10_1" to="1" fromLane="0" toLane="0" dir="s" state="M"/>
    <connection from=":gneJ11_0" to="-4" fromLane="0" toLane="0" dir="s" state="M"/>
    <connection from=":gneJ11_1" to="-1" fromLane="0" toLane="0" dir="s" state="M"/>
    <connection from=":gneJ11_2" to="-2" fromLane="0" toLane="0" dir="s" state="M"/>
    <connection from=":gneJ11_3" to="-3" fromLane="0" toLane="0" dir="s" state="M"/>
    <connection from=":gneJ12_0" to="-4o" fromLane="0" toLane="0" dir="s" state="M"/>
    <connection from=":gneJ12_1" to="4" fromLane="0" toLane="0" dir="s" state="M"/>
    <connection from=":gneJ13_0" to="3" fromLane="0" toLane="0" dir="s" state="M"/>
    <connection from=":gneJ13_1" to="-3o" fromLane="0" toLane="0" dir="s" state="M"/>
    <connection from=":gneJ14_0" to="2" fromLane="0" toLane="0" dir="s" state="M"/>
    <connection from=":gneJ14_1" to="-2o" fromLane="0" toLane="0" dir="s" state="M"/>

</net>
