<?xml version="1.0" encoding="UTF-8"?>

<!-- generated on 11/02/19 15:05:01 by Eclipse SUMO netedit Version 1.3.1
<configuration xmlns:xsi="http://www.w3.org/2001/XMLSchema-instance" xsi:noNamespaceSchemaLocation="http://sumo.dlr.de/xsd/netconvertConfiguration.xsd">

    <input>
        <sumo-net-file value="D:\Program%20Files%20(x86)\Sumo\map\nonControlCrossing.net.xml"/>
    </input>

    <output>
        <output-file value="D:\Program%20Files%20(x86)\Sumo\map\nonControlCrossing.net.xml"/>
    </output>

    <processing>
        <geometry.max-grade.fix value="false"/>
        <offset.disable-normalization value="true"/>
        <opposites.guess.fix-lengths value="true"/>
        <lefthand value="false"/>
    </processing>

    <junctions>
        <no-turnarounds value="true"/>
        <junctions.corner-detail value="5"/>
        <junctions.limit-turn-speed value="5.5"/>
        <rectangular-lane-cut value="false"/>
    </junctions>

    <pedestrian>
        <walkingareas value="false"/>
    </pedestrian>

</configuration>
-->

<net version="1.3" junctionCornerDetail="5" limitTurnSpeed="5.50" xmlns:xsi="http://www.w3.org/2001/XMLSchema-instance" xsi:noNamespaceSchemaLocation="http://sumo.dlr.de/xsd/net_file.xsd">

    <location netOffset="0.00,0.00" convBoundary="-300.00,-450.00,150.00,0.00" origBoundary="-10000000000.00,-10000000000.00,10000000000.00,10000000000.00" projParameter="!"/>

    <edge id=":gneJ20_0" function="internal">
        <lane id=":gneJ20_0_0" index="0" speed="13.89" length="16.19" shape="1.89,1.60 -14.30,1.60"/>
    </edge>
    <edge id=":gneJ20_1" function="internal">
        <lane id=":gneJ20_1_0" index="0" speed="13.89" length="16.19" shape="-13.87,-5.12 -10.06,-4.06 -6.04,-2.90 -2.00,-1.98 1.89,-1.60"/>
    </edge>
    <edge id=":gneJ20_2" function="internal">
        <lane id=":gneJ20_2_0" index="0" speed="13.89" length="16.19" shape="-14.30,-1.60 1.89,-1.60"/>
    </edge>

    <edge id="-gneE4" from="gneJ20" to="gneJ18" priority="-1">
        <lane id="-gneE4_0" index="0" speed="13.89" length="285.70" shape="-14.30,1.60 -300.00,1.60"/>
    </edge>
    <edge id="-gneE5" from="gneJ23" to="gneJ20" priority="-1">
        <lane id="-gneE5_0" index="0" speed="13.89" length="148.11" shape="150.00,1.60 1.89,1.60"/>
    </edge>
    <edge id="in" from="gneJ18" to="gneJ20" priority="-1">
        <lane id="in_0" index="0" speed="13.89" length="285.70" shape="-300.00,-1.60 -14.30,-1.60"/>
    </edge>
    <edge id="out" from="gneJ20" to="gneJ23" priority="-1">
        <lane id="out_0" index="0" speed="13.89" length="148.11" shape="1.89,-1.60 150.00,-1.60"/>
    </edge>
    <edge id="ramp" from="gneJ27" to="gneJ20" priority="-1">
        <lane id="ramp_0" index="0" speed="13.89" length="191.46" shape="-199.61,-51.55 -13.87,-5.12"/>
    </edge>

    <junction id="gneJ17" type="dead_end" x="0.00" y="-450.00" incLanes="" intLanes="" shape="0.00,-150.00 -3.20,-150.00 0.00,-150.00" customShape="1"/>
    <junction id="gneJ18" type="dead_end" x="-300.00" y="0.00" incLanes="-gneE4_0" intLanes="" shape="-300.00,0.00 -300.00,3.20 -300.00,0.00"/>
    <junction id="gneJ20" type="priority" x="0.00" y="0.00" incLanes="-gneE5_0 ramp_0 in_0" intLanes=":gneJ20_0_0 :gneJ20_1_0 :gneJ20_2_0" shape="1.89,3.20 1.89,-3.20 -1.45,-3.32 -3.89,-3.67 -5.88,-4.22 -7.85,-4.92 -10.23,-5.75 -13.48,-6.67 -14.26,-3.56 -14.30,-3.20 -14.30,3.20">
        <request index="0" response="000" foes="000" cont="0"/>
        <request index="1" response="100" foes="100" cont="0"/>
        <request index="2" response="000" foes="010" cont="0"/>
    </junction>
    <junction id="gneJ23" type="dead_end" x="150.00" y="0.00" incLanes="out_0" intLanes="" shape="150.00,0.00 150.00,-3.20 150.00,0.00"/>
    <junction id="gneJ27" type="dead_end" x="-200.00" y="-50.00" incLanes="" intLanes="" shape="-200.00,-50.00 -199.22,-53.10"/>

    <connection from="-gneE5" to="-gneE4" fromLane="0" toLane="0" via=":gneJ20_0_0" dir="s" state="M"/>
    <connection from="in" to="out" fromLane="0" toLane="0" via=":gneJ20_2_0" dir="s" state="M"/>
    <connection from="ramp" to="out" fromLane="0" toLane="0" via=":gneJ20_1_0" dir="s" state="m"/>

    <connection from=":gneJ20_0" to="-gneE4" fromLane="0" toLane="0" dir="s" state="M"/>
    <connection from=":gneJ20_1" to="out" fromLane="0" toLane="0" dir="s" state="M"/>
    <connection from=":gneJ20_2" to="out" fromLane="0" toLane="0" dir="s" state="M"/>

</net>
