<?xml version = '1.0' encoding = 'UTF-8'?>

<configuration>
	
	<input>
		<net-file value = 'timeRecord_test.net.xml'/>
		<route-files value = 'timeRecord_test.rou.xml'/>
	</input>
	
</configuration>